Version 4
SHEET 1 880 852
WIRE -560 -32 -560 -80
WIRE -432 -32 -432 -80
WIRE -272 -32 -272 -80
WIRE 352 112 160 112
WIRE -80 160 -80 112
WIRE -32 160 -80 160
WIRE 96 160 48 160
WIRE 352 160 352 112
WIRE -80 208 -80 160
WIRE -224 256 -384 256
WIRE -384 304 -384 256
WIRE 160 304 160 208
WIRE 160 304 -80 304
WIRE 160 336 160 304
FLAG -432 -160 5V
FLAG -432 -32 0
FLAG -272 -160 3.3V
FLAG -272 -32 0
FLAG -80 32 3.3V
FLAG 160 336 0
FLAG -384 384 0
FLAG 160 32 5V
FLAG 352 240 0
FLAG -384 256 sig
FLAG -560 -160 -5V
FLAG -560 -32 0
SYMBOL voltage -432 -176 R0
WINDOW 123 0 0 Left 0
WINDOW 39 0 0 Left 0
SYMATTR InstName V1
SYMATTR Value 5
SYMBOL voltage -384 288 R0
WINDOW 3 -506 55 Left 2
WINDOW 123 0 0 Left 0
WINDOW 39 0 0 Left 0
SYMATTR Value PULSE(0 3.3 0 0 0 6.25E-5 0.000125)
SYMATTR InstName V3
SYMBOL voltage -272 -176 R0
WINDOW 123 0 0 Left 0
WINDOW 39 0 0 Left 0
SYMATTR InstName V5
SYMATTR Value 3.3V
SYMBOL npn -144 208 R0
SYMATTR InstName Q1
SYMBOL res -128 240 R90
WINDOW 0 0 56 VBottom 2
WINDOW 3 32 56 VTop 2
SYMATTR InstName R2
SYMATTR Value 100
SYMBOL npn 96 112 R0
SYMATTR InstName Q2
SYMBOL res 64 144 R90
WINDOW 0 0 56 VBottom 2
WINDOW 3 32 56 VTop 2
SYMATTR InstName R3
SYMATTR Value 100
SYMBOL res -96 16 R0
SYMATTR InstName R1
SYMATTR Value 100
SYMBOL res 144 16 R0
SYMATTR InstName R4
SYMATTR Value 100
SYMBOL res 336 144 R0
SYMATTR InstName R5
SYMATTR Value 1K
SYMBOL voltage -560 -176 R0
WINDOW 123 0 0 Left 0
WINDOW 39 0 0 Left 0
SYMATTR InstName V2
SYMATTR Value -5
TEXT -464 216 Left 2 !.tran 0.1
